7d0m
     RDKit          3D

 13 12  0  0  0  0  0  0  0  0999 V2000
   -8.1393   22.4554  -32.4649 C   0  0  0  0  0  0  0  0  0  0  0  0
   -7.2248   21.4154  -32.2636 O   0  0  0  0  0  0  0  0  0  0  0  0
   -8.5382   22.9923  -31.0921 C   0  0  0  0  0  0  0  0  0  0  0  0
   -7.8252   24.1635  -30.8091 O   0  0  0  0  0  0  0  0  0  0  0  0
   -6.5878   23.9787  -30.1875 C   0  0  0  0  0  0  0  0  0  0  0  0
   -4.8143   25.3750  -29.3638 O   0  0  0  0  0  0  0  0  0  0  0  0
   -5.7573   25.2430  -30.3870 C   0  0  0  0  0  0  0  0  0  0  0  0
   -1.9630   23.3717  -30.2316 O   0  0  0  0  0  0  0  0  0  0  0  0
   -3.9338   24.2923  -29.2432 C   0  0  0  0  0  0  0  0  0  0  0  0
   -2.0672   20.2771  -29.2063 O   0  0  0  0  0  0  0  0  0  0  0  0
   -2.6631   24.5693  -30.0355 C   0  0  0  0  0  0  0  0  0  0  0  0
   -1.6723   22.6395  -29.0735 C   0  0  0  0  0  0  0  0  0  0  0  0
   -1.1138   21.2720  -29.4708 C   0  0  0  0  0  0  0  0  0  0  0  0
  1  2  1  0
  1  3  1  0
  3  4  1  0
  4  5  1  0
  5  7  1  0
  6  7  1  0
  6  9  1  0
  8 11  1  0
  9 11  1  0
  8 12  1  0
 10 13  1  0
 12 13  1  0
M  END
>  <ID>  (1) 
0

>  <smiles>  (1) 
OCCOCCOCCOCCO

$$$$
7dli
     RDKit          3D

 28 31  0  0  0  0  0  0  0  0999 V2000
   -7.3462   20.5840  -29.6604 O   0  0  0  0  0  0  0  0  0  0  0  0
   -6.5984   21.1996  -30.6865 C   0  0  1  0  0  0  0  0  0  0  0  0
   -6.2172   22.6407  -30.2090 C   0  0  0  0  0  0  0  0  0  0  0  0
   -6.3736   23.7764  -31.1685 N   0  0  0  0  0  0  0  0  0  0  0  0
   -5.0896   24.2793  -31.6079 C   0  0  0  0  0  0  0  0  0  0  0  0
   -4.3469   24.8346  -30.4720 C   0  0  0  0  0  0  0  0  0  0  0  0
   -3.1886   24.4169  -29.8458 C   0  0  0  0  0  0  0  0  0  0  0  0
   -2.9765   25.3458  -28.7588 C   0  0  0  0  0  0  0  0  0  0  0  0
   -4.0125   26.2367  -28.7907 C   0  0  0  0  0  0  0  0  0  0  0  0
   -4.8624   25.9280  -29.8217 O   0  0  0  0  0  0  0  0  0  0  0  0
   -7.8730   24.4501  -31.5966 S   0  0  0  0  0  0  0  0  0  0  0  0
   -7.4657   25.5350  -32.8168 C   0  0  0  0  0  0  0  0  0  0  0  0
   -8.4080   25.1112  -30.4636 O   0  0  0  0  0  0  0  0  0  0  0  0
   -8.7074   23.4496  -32.1938 O   0  0  0  0  0  0  0  0  0  0  0  0
   -5.4261   20.1548  -31.1206 C   0  0  0  0  0  0  0  0  0  0  0  0
   -6.0721   18.9209  -31.4471 N   0  0  0  0  0  0  0  0  0  0  0  0
   -6.7630   18.6356  -32.6270 C   0  0  0  0  0  0  0  0  0  0  0  0
   -6.9076   19.4342  -33.7478 C   0  0  0  0  0  0  0  0  0  0  0  0
   -7.6248   18.9046  -34.8132 C   0  0  0  0  0  0  0  0  0  0  0  0
   -8.1756   17.6304  -34.7393 C   0  0  0  0  0  0  0  0  0  0  0  0
   -8.0333   16.8539  -33.5961 C   0  0  0  0  0  0  0  0  0  0  0  0
   -7.3165   17.3540  -32.5384 C   0  0  0  0  0  0  0  0  0  0  0  0
   -6.9684   16.8253  -31.2465 C   0  0  0  0  0  0  0  0  0  0  0  0
   -6.2207   17.8123  -30.5968 C   0  0  0  0  0  0  0  0  0  0  0  0
   -5.7194   17.6532  -29.3233 C   0  0  0  0  0  0  0  0  0  0  0  0
   -5.9835   16.4557  -28.6957 C   0  0  0  0  0  0  0  0  0  0  0  0
   -6.7273   15.4502  -29.3199 C   0  0  0  0  0  0  0  0  0  0  0  0
   -7.2185   15.6297  -30.6052 C   0  0  0  0  0  0  0  0  0  0  0  0
  2  1  1  1
  2  3  1  0
  3  4  1  0
  4  5  1  0
  5  6  1  0
  6  7  2  0
  7  8  1  0
  8  9  2  0
  6 10  1  0
  9 10  1  0
  4 11  1  0
 11 12  1  0
 11 13  2  0
 11 14  2  0
  2 15  1  0
 15 16  1  0
 16 17  1  0
 17 18  2  0
 18 19  1  0
 19 20  2  0
 20 21  1  0
 17 22  1  0
 21 22  2  0
 22 23  1  0
 16 24  1  0
 23 24  2  0
 24 25  1  0
 25 26  2  0
 26 27  1  0
 23 28  1  0
 27 28  2  0
M  END
>  <ID>  (2) 
1

>  <smiles>  (2) 
CS(=O)(=O)N(Cc1ccco1)C[C@H](O)Cn1c2ccccc2c2ccccc21

$$$$
7d19
     RDKit          3D

 33 37  0  0  0  0  0  0  0  0999 V2000
   -5.7023   21.5895  -28.7383 O   0  0  0  0  0  0  0  0  0  0  0  0
   -6.7641   21.2554  -29.2833 C   0  0  0  0  0  0  0  0  0  0  0  0
   -7.5678   22.2867  -29.9018 C   0  0  0  0  0  0  0  0  0  0  0  0
   -7.3326   23.6395  -29.7364 C   0  0  0  0  0  0  0  0  0  0  0  0
   -8.0874   24.6154  -30.3876 C   0  0  0  0  0  0  0  0  0  0  0  0
   -8.5879   21.9909  -30.8266 C   0  0  0  0  0  0  0  0  0  0  0  0
   -9.3466   22.9656  -31.4756 C   0  0  0  0  0  0  0  0  0  0  0  0
   -9.1359   24.3192  -31.2727 C   0  0  0  0  0  0  0  0  0  0  0  0
   -9.8787   25.3877  -31.9821 C   0  0  0  0  0  0  0  0  0  0  0  0
   -9.3418   26.7392  -32.2839 C   0  0  0  0  0  0  0  0  0  0  0  0
   -9.9707   27.9617  -32.0037 C   0  0  0  0  0  0  0  0  0  0  0  0
   -9.3632   29.1826  -32.3116 C   0  0  0  0  0  0  0  0  0  0  0  0
   -8.1019   29.2096  -32.9088 C   0  0  0  0  0  0  0  0  0  0  0  0
   -7.4697   28.0102  -33.1761 C   0  0  0  0  0  0  0  0  0  0  0  0
   -8.0719   26.8076  -32.8649 C   0  0  0  0  0  0  0  0  0  0  0  0
  -10.9922   25.0878  -32.4179 O   0  0  0  0  0  0  0  0  0  0  0  0
   -6.9880   19.9311  -29.3315 N   0  0  0  0  0  0  0  0  0  0  0  0
   -6.2311   18.9221  -28.8491 C   0  0  0  0  0  0  0  0  0  0  0  0
   -5.5631   18.7777  -27.6281 C   0  0  0  0  0  0  0  0  0  0  0  0
   -5.3915   19.5401  -26.3783 C   0  0  0  0  0  0  0  0  0  0  0  0
   -4.7142   18.3424  -25.1598 S   0  0  0  0  0  0  0  0  0  0  0  0
   -4.1540   17.1137  -26.4283 C   0  0  0  0  0  0  0  0  0  0  0  0
   -4.9190   17.4880  -27.6611 C   0  0  0  0  0  0  0  0  0  0  0  0
   -5.1720   16.9012  -28.8585 N   0  0  0  0  0  0  0  0  0  0  0  0
   -5.9654   17.7994  -29.5866 N   0  0  0  0  0  0  0  0  0  0  0  0
   -6.4909   17.5226  -30.9405 C   0  0  0  0  0  0  0  0  0  0  0  0
   -6.3431   18.3911  -32.0754 C   0  0  0  0  0  0  0  0  0  0  0  0
   -5.5444   19.6748  -32.0407 C   0  0  0  0  0  0  0  0  0  0  0  0
   -6.9284   18.0745  -33.2989 C   0  0  0  0  0  0  0  0  0  0  0  0
   -7.2786   16.3876  -31.1636 C   0  0  0  0  0  0  0  0  0  0  0  0
   -7.8493   16.0973  -32.4218 C   0  0  0  0  0  0  0  0  0  0  0  0
   -7.6915   16.9461  -33.5315 C   0  0  0  0  0  0  0  0  0  0  0  0
   -8.2925   16.6503  -34.8902 C   0  0  0  0  0  0  0  0  0  0  0  0
  1  2  2  0
  2  3  1  0
  3  4  2  0
  4  5  1  0
  3  6  1  0
  6  7  2  0
  5  8  2  0
  7  8  1  0
  8  9  1  0
  9 10  1  0
 10 11  2  0
 11 12  1  0
 12 13  2  0
 13 14  1  0
 10 15  1  0
 14 15  2  0
  9 16  2  0
  2 17  1  0
 17 18  1  0
 18 19  2  0
 19 20  1  0
 20 21  1  0
 21 22  1  0
 19 23  1  0
 22 23  1  0
 23 24  2  0
 18 25  1  0
 24 25  1  0
 25 26  1  0
 26 27  2  0
 27 28  1  0
 27 29  1  0
 26 30  1  0
 30 31  2  0
 29 32  2  0
 31 32  1  0
 32 33  1  0
M  END
>  <ID>  (3) 
2

>  <smiles>  (3) 
Cc1ccc(-n2nc3c(c2NC(=O)c2ccc(C(=O)c4ccccc4)cc2)CSC3)c(C)c1

$$$$
7d1c
     RDKit          3D

 35 39  0  0  0  0  0  0  0  0999 V2000
   -5.4665   22.0463  -28.3200 O   0  0  0  0  0  0  0  0  0  0  0  0
   -6.4511   21.6710  -29.0294 C   0  0  0  0  0  0  0  0  0  0  0  0
   -6.6491   20.3019  -29.0516 N   0  0  0  0  0  0  0  0  0  0  0  0
   -5.9436   19.2481  -28.4757 C   0  0  0  0  0  0  0  0  0  0  0  0
   -5.2219   19.1092  -27.3138 C   0  0  0  0  0  0  0  0  0  0  0  0
   -4.8644   19.8380  -26.0555 C   0  0  0  0  0  0  0  0  0  0  0  0
   -4.4235   18.6424  -24.8882 S   0  0  0  0  0  0  0  0  0  0  0  0
   -3.8566   17.4778  -26.0555 C   0  0  0  0  0  0  0  0  0  0  0  0
   -4.6455   17.7855  -27.2882 C   0  0  0  0  0  0  0  0  0  0  0  0
   -5.0003   17.1239  -28.4446 N   0  0  0  0  0  0  0  0  0  0  0  0
   -5.7789   18.0409  -29.1953 N   0  0  0  0  0  0  0  0  0  0  0  0
   -6.3464   17.6542  -30.4979 C   0  0  0  0  0  0  0  0  0  0  0  0
   -7.0652   16.4535  -30.6563 C   0  0  0  0  0  0  0  0  0  0  0  0
   -7.6455   16.0544  -31.8812 C   0  0  0  0  0  0  0  0  0  0  0  0
   -7.5498   16.8621  -33.0062 C   0  0  0  0  0  0  0  0  0  0  0  0
   -8.1272   16.4632  -34.2188 O   0  0  0  0  0  0  0  0  0  0  0  0
   -8.2201   17.4192  -35.2468 C   0  0  0  0  0  0  0  0  0  0  0  0
   -6.8602   18.0756  -32.9004 C   0  0  0  0  0  0  0  0  0  0  0  0
   -6.2813   18.4638  -31.6592 C   0  0  0  0  0  0  0  0  0  0  0  0
   -5.5601   18.1122  -24.2134 O   0  0  0  0  0  0  0  0  0  0  0  0
   -3.3581   19.1090  -24.0665 O   0  0  0  0  0  0  0  0  0  0  0  0
   -7.1723   22.7299  -29.7678 C   0  0  0  0  0  0  0  0  0  0  0  0
   -6.8061   24.0714  -29.7461 C   0  0  0  0  0  0  0  0  0  0  0  0
   -7.4840   25.0421  -30.5038 C   0  0  0  0  0  0  0  0  0  0  0  0
   -8.5593   24.7154  -31.3423 C   0  0  0  0  0  0  0  0  0  0  0  0
   -9.1379   25.8580  -32.0895 C   0  0  0  0  0  0  0  0  0  0  0  0
   -8.3921   27.0742  -32.5896 C   0  0  0  0  0  0  0  0  0  0  0  0
   -7.1256   26.9510  -33.1972 C   0  0  0  0  0  0  0  0  0  0  0  0
   -6.3927   28.0527  -33.6628 C   0  0  0  0  0  0  0  0  0  0  0  0
   -6.9155   29.3398  -33.5276 C   0  0  0  0  0  0  0  0  0  0  0  0
   -8.1694   29.4983  -32.9244 C   0  0  0  0  0  0  0  0  0  0  0  0
   -8.8942   28.3783  -32.4585 C   0  0  0  0  0  0  0  0  0  0  0  0
  -10.3888   25.7657  -32.3539 O   0  0  0  0  0  0  0  0  0  0  0  0
   -8.8988   23.3662  -31.4022 C   0  0  0  0  0  0  0  0  0  0  0  0
   -8.2207   22.3964  -30.6426 C   0  0  0  0  0  0  0  0  0  0  0  0
  1  2  2  0
  2  3  1  0
  3  4  1  0
  4  5  2  0
  5  6  1  0
  6  7  1  0
  7  8  1  0
  5  9  1  0
  8  9  1  0
  9 10  2  0
  4 11  1  0
 10 11  1  0
 11 12  1  0
 12 13  2  0
 13 14  1  0
 14 15  2  0
 15 16  1  0
 16 17  1  0
 15 18  1  0
 12 19  1  0
 18 19  2  0
  7 20  2  0
  7 21  2  0
  2 22  1  0
 22 23  2  0
 23 24  1  0
 24 25  2  0
 25 26  1  0
 26 27  1  0
 27 28  2  0
 28 29  1  0
 29 30  2  0
 30 31  1  0
 27 32  1  0
 31 32  2  0
 26 33  2  0
 25 34  1  0
 22 35  1  0
 34 35  2  0
M  END
>  <ID>  (4) 
3

>  <smiles>  (4) 
COc1ccc(-n2nc3c(c2NC(=O)c2ccc(C(=O)c4ccccc4)cc2)CS(=O)(=O)C3)cc1

$$$$
6kx5
     RDKit          3D

 26 29  0  0  0  0  0  0  0  0999 V2000
   -8.8079   22.0067  -32.8257 Cl  0  0  0  0  0  0  0  0  0  0  0  0
   -6.4564   15.4478  -28.8625 C   0  0  0  0  0  0  0  0  0  0  0  0
   -7.1181   15.4675  -30.0984 C   0  0  0  0  0  0  0  0  0  0  0  0
   -6.8518   16.5117  -31.0181 C   0  0  0  0  0  0  0  0  0  0  0  0
   -5.9544   17.5146  -30.7059 C   0  0  0  0  0  0  0  0  0  0  0  0
   -5.2844   17.4870  -29.4516 C   0  0  0  0  0  0  0  0  0  0  0  0
   -5.5491   16.4648  -28.5527 C   0  0  0  0  0  0  0  0  0  0  0  0
   -5.8793   18.3789  -31.7554 N   0  0  0  0  0  0  0  0  0  0  0  0
   -6.7028   17.9595  -32.7525 C   0  0  0  0  0  0  0  0  0  0  0  0
   -7.3416   16.8089  -32.3556 C   0  0  0  0  0  0  0  0  0  0  0  0
   -8.2772   16.1730  -33.2028 C   0  0  0  0  0  0  0  0  0  0  0  0
   -8.5486   16.7195  -34.4577 C   0  0  0  0  0  0  0  0  0  0  0  0
   -7.8999   17.8934  -34.8613 C   0  0  0  0  0  0  0  0  0  0  0  0
   -6.9967   18.5203  -34.0151 C   0  0  0  0  0  0  0  0  0  0  0  0
   -4.9996   19.5575  -31.8397 C   0  0  0  0  0  0  0  0  0  0  0  0
   -5.6079   20.9108  -31.4775 C   0  0  0  0  0  0  0  0  0  0  0  0
   -5.0136   21.9155  -31.7341 O   0  0  0  0  0  0  0  0  0  0  0  0
   -6.8921   20.9717  -30.8097 N   0  0  0  0  0  0  0  0  0  0  0  0
   -7.4506   22.2822  -30.4899 C   0  0  0  0  0  0  0  0  0  0  0  0
   -7.0933   22.9589  -29.3472 C   0  0  0  0  0  0  0  0  0  0  0  0
   -7.6571   24.1957  -29.0615 C   0  0  0  0  0  0  0  0  0  0  0  0
   -8.5679   24.7720  -29.9214 C   0  0  0  0  0  0  0  0  0  0  0  0
   -8.9270   24.1071  -31.0800 C   0  0  0  0  0  0  0  0  0  0  0  0
   -8.3658   22.8618  -31.3441 C   0  0  0  0  0  0  0  0  0  0  0  0
   -6.0975   22.3342  -28.3891 C   0  0  0  0  0  0  0  0  0  0  0  0
   -5.3525   21.8539  -27.6952 N   0  0  0  0  0  0  0  0  0  0  0  0
  2  3  2  0
  3  4  1  0
  4  5  2  0
  5  6  1  0
  2  7  1  0
  6  7  2  0
  5  8  1  0
  8  9  1  0
  4 10  1  0
  9 10  2  0
 10 11  1  0
 11 12  2  0
 12 13  1  0
  9 14  1  0
 13 14  2  0
  8 15  1  0
 15 16  1  0
 16 17  2  0
 16 18  1  0
 18 19  1  0
 19 20  2  0
 20 21  1  0
 21 22  2  0
 22 23  1  0
  1 24  1  0
 19 24  1  0
 23 24  2  0
 20 25  1  0
 25 26  3  0
M  END
>  <ID>  (5) 
4

>  <smiles>  (5) 
N#Cc1cccc(Cl)c1NC(=O)Cn1c2ccccc2c2ccccc21

$$$$
7wva
     RDKit          3D

 29 31  0  0  0  0  0  0  0  0999 V2000
   -8.6342   17.0067  -35.0333 C   0  0  0  0  0  0  0  0  0  0  0  0
   -8.1066   16.6745  -33.7664 O   0  0  0  0  0  0  0  0  0  0  0  0
   -7.4170   17.6712  -33.1548 C   0  0  0  0  0  0  0  0  0  0  0  0
   -7.4170   18.9890  -33.6266 C   0  0  0  0  0  0  0  0  0  0  0  0
   -6.6964   19.9777  -32.9735 C   0  0  0  0  0  0  0  0  0  0  0  0
   -5.9397   19.7196  -31.8107 C   0  0  0  0  0  0  0  0  0  0  0  0
   -5.1994   20.8154  -31.1790 C   0  0  0  0  0  0  0  0  0  0  0  0
   -4.6407   21.8252  -31.8013 N   0  0  0  0  0  0  0  0  0  0  0  0
   -3.9888   22.7933  -31.1377 N   0  0  0  0  0  0  0  0  0  0  0  0
   -3.8829   24.1423  -31.6849 C   0  0  0  0  0  0  0  0  0  0  0  0
   -4.3746   24.4046  -32.7273 O   0  0  0  0  0  0  0  0  0  0  0  0
   -3.1339   25.2339  -30.8584 C   0  0  0  0  0  0  0  0  0  0  0  0
   -4.0505   25.6315  -29.2408 S   0  0  0  0  0  0  0  0  0  0  0  0
   -4.6501   24.1469  -28.3838 C   0  0  0  0  0  0  0  0  0  0  0  0
   -4.0562   23.4321  -27.3979 N   0  0  0  0  0  0  0  0  0  0  0  0
   -4.9515   22.3450  -27.1074 C   0  0  0  0  0  0  0  0  0  0  0  0
   -6.0851   22.4347  -27.9512 C   0  0  0  0  0  0  0  0  0  0  0  0
   -7.1256   21.4840  -27.8741 C   0  0  0  0  0  0  0  0  0  0  0  0
   -7.0387   20.4688  -26.9457 C   0  0  0  0  0  0  0  0  0  0  0  0
   -5.9038   20.3640  -26.0902 C   0  0  0  0  0  0  0  0  0  0  0  0
   -4.8754   21.2804  -26.1578 C   0  0  0  0  0  0  0  0  0  0  0  0
   -5.8989   23.5765  -28.7640 N   0  0  0  0  0  0  0  0  0  0  0  0
   -6.7833   24.0636  -29.7808 C   0  0  0  0  0  0  0  0  0  0  0  0
   -5.9324   18.3913  -31.3199 C   0  0  0  0  0  0  0  0  0  0  0  0
   -5.2021   18.0905  -30.2204 O   0  0  0  0  0  0  0  0  0  0  0  0
   -5.8515   18.0011  -28.9534 C   0  0  0  0  0  0  0  0  0  0  0  0
   -6.6685   17.3633  -31.9840 C   0  0  0  0  0  0  0  0  0  0  0  0
   -6.5989   16.0997  -31.4688 O   0  0  0  0  0  0  0  0  0  0  0  0
   -7.8166   15.4525  -31.0159 C   0  0  0  0  0  0  0  0  0  0  0  0
  1  2  1  0
  2  3  1  0
  3  4  2  0
  4  5  1  0
  5  6  2  0
  6  7  1  0
  7  8  2  0
  8  9  1  0
  9 10  1  0
 10 11  2  0
 10 12  1  0
 12 13  1  0
 13 14  1  0
 14 15  2  0
 15 16  1  0
 16 17  2  0
 17 18  1  0
 18 19  2  0
 19 20  1  0
 16 21  1  0
 20 21  2  0
 14 22  1  0
 17 22  1  0
 22 23  1  0
  6 24  1  0
 24 25  1  0
 25 26  1  0
  3 27  1  0
 24 27  2  0
 27 28  1  0
 28 29  1  0
M  END
>  <ID>  (6) 
5

>  <smiles>  (6) 
COc1ccc(/C=N/NC(=O)CSc2nc3ccccc3n2C)c(OC)c1OC

$$$$
